/*--------------------------------*- C++ -*----------------------------------*\
| =========                 |                                                 |
| \\      /  F ield         | OpenFOAM: The Open Source CFD Toolbox           |
|  \\    /   O peration     | Version:  2206                                  |
|   \\  /    A nd           | Website:  www.openfoam.com                      |
|    \\/     M anipulation  |                                                 |
\*---------------------------------------------------------------------------*/
FoamFile
{
    version     2.0;
    format      ascii;
    class       volScalarField;
    object      k;
}
// * * * * * * * * * * * * * * * * * * * * * * * * * * * * * * * * * * * * * //

// estimation of turbulent kinetic energy (isotropic turbulence)
// intensity = 0.01
// u_ref = 8.0 m/s
// (3/2)*(I u_ref)^2 = 0.0096

kInlet          0.0096;

dimensions      [0 2 -2 0 0 0 0];

internalField   uniform $kInlet;

boundaryField
{
    inlet
    {
        type            turbulentIntensityKineticEnergyInlet;
        intensity       0.01;
        value           $internalField;
    }

    walls
    {
        type            kqRWallFunction;
        value           uniform 1e-10;
    }
    
    outlet
    {
        type            inletOutlet;
        inletValue      $internalField;
        value           $internalField;
    }

    #include "include/frontAndBack"

    #includeEtc "caseDicts/setConstraintTypes"
}


// ************************************************************************* //
