/*--------------------------------*- C++ -*----------------------------------*\
| =========                 |                                                 |
| \\      /  F ield         | OpenFOAM: The Open Source CFD Toolbox           |
|  \\    /   O peration     | Version:  2206                                  |
|   \\  /    A nd           | Website:  www.openfoam.com                      |
|    \\/     M anipulation  |                                                 |
\*---------------------------------------------------------------------------*/
FoamFile
{
    version     2.0;
    format      ascii;
    class       volScalarField;
    object      nut;
}
// * * * * * * * * * * * * * * * * * * * * * * * * * * * * * * * * * * * * * //

dimensions      [0 2 -1 0 0 0 0];

internalField   uniform 1e-10;

boundaryField
{
    inlet
    {
        type            calculated;
        value           $internalField;
    }

    walls
    {
        type            nutkWallFunction;
        value           uniform 1e-15;
    }

    outlet
    {
        type            calculated;
        value           $internalField;
    }

    #include "include/frontAndBack"
    
    #includeEtc "caseDicts/setConstraintTypes"
}


// ************************************************************************* //
