/*--------------------------------*- C++ -*----------------------------------*\
| =========                 |                                                 |
| \\      /  F ield         | OpenFOAM: The Open Source CFD Toolbox           |
|  \\    /   O peration     | Version:  2206                                  |
|   \\  /    A nd           | Website:  www.openfoam.com                      |
|    \\/     M anipulation  |                                                 |
\*---------------------------------------------------------------------------*/
FoamFile
{
    version     2.0;
    format      ascii;
    class       volScalarField;
    object      omega;
}
// * * * * * * * * * * * * * * * * * * * * * * * * * * * * * * * * * * * * * //

// estimation of tuebulent kinetic energy (isotropic turbulence)
// intensity = 0.01
// u_ref = 8.0 m/s
// k = (3/2)*(I u_ref)^2 = 0.0096
//
// C_mu = 0.09
// L = 4 mm (channel inlet)
// omega = sqrt(k)/( C_mu^1/4 L) = 44.72135955 

omegaInlet      44.72135955;

dimensions      [0 0 -1 0 0 0 0];

internalField   uniform $omegaInlet;

boundaryField
{
    inlet
    {
        type            inletOutlet;
        inletValue      uniform $omegaInlet;
        value           uniform $omegaInlet;
    }

    walls
    {
        type            omegaWallFunction;
        value           uniform 1.0e10;
    }

    outlet
    {
        type            inletOutlet;
        inletValue      uniform $omegaInlet;
        value           uniform $omegaInlet;
    }

    #include "include/frontAndBack"
    
    #includeEtc "caseDicts/setConstraintTypes"
}


// ************************************************************************* //
