/*--------------------------------*- C++ -*----------------------------------*\
| =========                 |                                                 |
| \\      /  F ield         | OpenFOAM: The Open Source CFD Toolbox           |
|  \\    /   O peration     | Version:  2206                                  |
|   \\  /    A nd           | Website:  www.openfoam.com                      |
|    \\/     M anipulation  |                                                 |
\*---------------------------------------------------------------------------*/
FoamFile
{
    version     2.0;
    format      ascii;
    class       volScalarField;
    object      p;
}
// * * * * * * * * * * * * * * * * * * * * * * * * * * * * * * * * * * * * * //

pOut            101325; // 1 atm
dimensions      [1 -1 -2 0 0 0 0];

internalField   uniform $pOut;

boundaryField
{
    inlet
    {
        type            waveTransmissive;
        field           p;
        psi             thermo:psi;
        gamma           1.4;
        fieldInf        $pOut;
        lInf            0.05;
        value           uniform $pOut;
    }

    walls
    {
        type            zeroGradient;
    }

    outlet
    {
        type            waveTransmissive;
        field           p;
        psi             thermo:psi;
        gamma           1.4;
        fieldInf        $pOut;
        lInf            0.05;
        value           uniform $pOut;
    }

    #include "include/frontAndBack"

    #includeEtc "caseDicts/setConstraintTypes"
}


// ************************************************************************* //
