/*--------------------------------*- C++ -*----------------------------------* \
| =========                 |                                                 |
| \\      /  F ield         | OpenFOAM: The Open Source CFD Toolbox           |
|  \\    /   O peration     | Version:  2206                                  |
|   \\  /    A nd           | Website:  www.openfoam.com                      |
|    \\/     M anipulation  |                                                 |
\*---------------------------------------------------------------------------*/
FoamFile
{
    version     2.0;
    format      ascii;
    class       volVectorField;
    object      U;
}
// * * * * * * * * * * * * * * * * * * * * * * * * * * * * * * * * * * * * * //

dimensions      [0 1 -1 0 0 0 0];

internalField   uniform (0 0 0);

boundaryField
{
    inlet
    {
        type            fixedProfile;
        profile         csvFile;
        profileCoeffs
        {
            nHeaderLine      18;
            refColumn        0;
            componentColumns 3(1 2 3);
            separator        ",";
            mergeSeparators  0;
            file             "0/Uprofile.csv";
        }
        direction       (0 1 0);
        origin          0;

    }

    walls
    {
        type            noSlip;
    }

    outlet
    {
        type            inletOutlet;
        value           $internalField;
        inletValue      $internalField;
    }

    #include "include/frontAndBack"
    
    #includeEtc "caseDicts/setConstraintTypes"
}


// ************************************************************************* //
